41684
  -OEChem-12111905553D

 30 31  0     0  0  0  0  0  0999 V2000
    2.9371   -1.0475    0.6259 S   0  0  0  0  0  0  0  0  0  0  0  0
   -3.2229    1.2594   -0.4866 O   0  0  0  0  0  0  0  0  0  0  0  0
   -0.7480    0.9482   -1.3611 O   0  0  0  0  0  0  0  0  0  0  0  0
   -2.9022    1.5719    1.8109 O   0  0  0  0  0  0  0  0  0  0  0  0
    6.3318    0.6738   -0.0929 O   0  5  0  0  0  0  0  0  0  0  0  0
    5.8120   -1.1006    1.0985 O   0  0  0  0  0  0  0  0  0  0  0  0
    0.4478   -0.6079   -0.0666 N   0  0  0  0  0  0  0  0  0  0  0  0
    2.1449    0.8942   -0.8857 N   0  0  0  0  0  0  0  0  0  0  0  0
    5.4710   -0.1360    0.3558 N   0  3  0  0  0  0  0  0  0  0  0  0
   -1.9465   -0.7673   -0.3520 C   0  0  0  0  0  0  0  0  0  0  0  0
   -3.1626   -0.0874   -0.2869 C   0  0  0  0  0  0  0  0  0  0  0  0
   -0.7071   -0.0570   -0.6353 C   0  0  0  0  0  0  0  0  0  0  0  0
   -1.9063   -2.1462   -0.1448 C   0  0  0  0  0  0  0  0  0  0  0  0
   -4.3386   -0.7862   -0.0141 C   0  0  0  0  0  0  0  0  0  0  0  0
   -3.0823   -2.8451    0.1278 C   0  0  0  0  0  0  0  0  0  0  0  0
    1.7582   -0.1395   -0.2041 C   0  0  0  0  0  0  0  0  0  0  0  0
   -4.2984   -2.1651    0.1931 C   0  0  0  0  0  0  0  0  0  0  0  0
    4.1220    0.0380    0.0267 C   0  0  0  0  0  0  0  0  0  0  0  0
    3.5157    1.0001   -0.7535 C   0  0  0  0  0  0  0  0  0  0  0  0
   -3.0725    2.0188    0.6844 C   0  0  0  0  0  0  0  0  0  0  0  0
   -3.1534    3.4811    0.3604 C   0  0  0  0  0  0  0  0  0  0  0  0
   -0.9891   -2.7228   -0.2224 H   0  0  0  0  0  0  0  0  0  0  0  0
   -5.2900   -0.2637    0.0371 H   0  0  0  0  0  0  0  0  0  0  0  0
    0.3747   -1.4150    0.5458 H   0  0  0  0  0  0  0  0  0  0  0  0
   -3.0529   -3.9199    0.2808 H   0  0  0  0  0  0  0  0  0  0  0  0
   -5.2143   -2.7095    0.4032 H   0  0  0  0  0  0  0  0  0  0  0  0
    4.0247    1.8117   -1.2575 H   0  0  0  0  0  0  0  0  0  0  0  0
   -2.3535    3.7494   -0.3341 H   0  0  0  0  0  0  0  0  0  0  0  0
   -3.0296    4.0635    1.2778 H   0  0  0  0  0  0  0  0  0  0  0  0
   -4.1312    3.7101   -0.0703 H   0  0  0  0  0  0  0  0  0  0  0  0
  1 16  1  0  0  0  0
  1 18  1  0  0  0  0
  2 11  1  0  0  0  0
  2 20  1  0  0  0  0
  3 12  2  0  0  0  0
  4 20  2  0  0  0  0
  5  9  1  0  0  0  0
  6  9  2  0  0  0  0
  7 12  1  0  0  0  0
  7 16  1  0  0  0  0
  7 24  1  0  0  0  0
  8 16  2  0  0  0  0
  8 19  1  0  0  0  0
  9 18  1  0  0  0  0
 10 11  1  0  0  0  0
 10 12  1  0  0  0  0
 10 13  2  0  0  0  0
 11 14  2  0  0  0  0
 13 15  1  0  0  0  0
 13 22  1  0  0  0  0
 14 17  1  0  0  0  0
 14 23  1  0  0  0  0
 15 17  2  0  0  0  0
 15 25  1  0  0  0  0
 17 26  1  0  0  0  0
 18 19  2  0  0  0  0
 19 27  1  0  0  0  0
 20 21  1  0  0  0  0
 21 28  1  0  0  0  0
 21 29  1  0  0  0  0
 21 30  1  0  0  0  0
M  CHG  2   5  -1   9   1
M  END
> <PUBCHEM_COMPOUND_CID>
41684

> <PUBCHEM_CONFORMER_RMSD>
0.8

> <PUBCHEM_CONFORMER_DIVERSEORDER>
6
14
17
15
35
9
31
23
16
30
7
27
13
12
29
10
28
24
34
19
11
25
33
18
32
20
21
2
26
22
4
5
8
1
3

> <PUBCHEM_MMFF94_PARTIAL_CHARGES>
27
1 -0.08
10 0.09
11 0.08
12 0.54
13 -0.15
14 -0.15
15 -0.15
16 0.44
17 -0.15
18 0.12
19 0.08
2 -0.23
20 0.66
21 0.06
22 0.15
23 0.15
24 0.37
25 0.15
26 0.15
27 0.15
3 -0.57
4 -0.57
5 -0.52
6 -0.52
7 -0.49
8 -0.57
9 0.96

> <PUBCHEM_EFFECTIVE_ROTOR_COUNT>
6

> <PUBCHEM_PHARMACOPHORE_FEATURES>
8
1 3 acceptor
1 4 acceptor
1 5 acceptor
1 5 anion
1 6 acceptor
1 7 donor
5 1 8 16 18 19 rings
6 10 11 13 14 15 17 rings

> <PUBCHEM_HEAVY_ATOM_COUNT>
21

> <PUBCHEM_ATOM_DEF_STEREO_COUNT>
0

> <PUBCHEM_ATOM_UDEF_STEREO_COUNT>
0

> <PUBCHEM_BOND_DEF_STEREO_COUNT>
0

> <PUBCHEM_BOND_UDEF_STEREO_COUNT>
0

> <PUBCHEM_ISOTOPIC_ATOM_COUNT>
0

> <PUBCHEM_COMPONENT_COUNT>
1

> <PUBCHEM_CACTVS_TAUTO_COUNT>
3

> <PUBCHEM_CONFORMER_ID>
0000A2D400000006

> <PUBCHEM_MMFF94_ENERGY>
55.3753

> <PUBCHEM_FEATURE_SELFOVERLAP>
40.677

> <PUBCHEM_SHAPE_FINGERPRINT>
10366900 7 17988914596220714139
10595046 47 18334858376795945990
10912923 1 18113616794628216984
11036077 4 18336257938453765938
11315181 36 18334012821978269700
12107183 9 17903631887492938170
12236239 1 18113897178166464638
12596602 18 18409442605605012624
13073987 5 18410007746144670418
13167823 11 18260824930140358610
13403585 85 18272927258858660808
13583140 156 17704062989215086514
13675066 3 17846498132451128718
14178342 30 18409175389191925567
14341114 176 18337956800125292176
14420673 8 18193839228818198198
14565420 104 17338463098659972193
15042514 8 18195249038673986383
15326921 28 17685751555511715360
17780758 139 18409440388948076810
17844677 252 18341337768774939688
1813 80 16950568749027389534
19489759 90 18131346397486604232
200 152 18187078503010475334
20510252 161 18343027692334829667
20681677 274 18196650915740067401
21033648 29 16917056746866524458
21065198 48 18335136480023012098
21267235 1 18114467854581805406
21401589 2 17558846000742617577
2297311 6 18271257121859799063
2306618 200 18187358827500258677
23402539 116 18272365412996768767
23522609 53 17824285751793229852
23557571 272 18130794451503308316
23559900 14 18266167504104592729
312423 11 18042136490959457652
4214541 1 18408038515806931406
5104073 3 18409718553148516136
559249 180 18186792556841038122
573450 72 18408317787602634194
67856867 119 18116715316874011636
6992083 37 18114190713574951237

> <PUBCHEM_SHAPE_MULTIPOLES>
391.73
12.11
2.83
0.99
18.94
1.11
0.14
-0.99
2.23
-5.02
0.57
-0.01
0.3
-1.16

> <PUBCHEM_SHAPE_SELFOVERLAP>
827.61

> <PUBCHEM_SHAPE_VOLUME>
220.2

> <PUBCHEM_COORDINATE_TYPE>
2
5
10

$$$$
