5702160
  -OEChem-03111922163D

 35 35  0     0  0  0  0  0  0999 V2000
    0.9743   -2.0460    1.1294 S   0  0  0  0  0  0  0  0  0  0  0  0
    2.4950    2.0420   -0.1265 S   0  0  0  0  0  0  0  0  0  0  0  0
   -3.8047   -1.7708   -0.0591 S   0  0  0  0  0  0  0  0  0  0  0  0
    3.5842    2.6356   -0.8850 O   0  0  0  0  0  0  0  0  0  0  0  0
    2.4554    2.2199    1.3161 O   0  0  0  0  0  0  0  0  0  0  0  0
    2.4327    0.4437   -0.4610 N   0  0  0  0  0  0  0  0  0  0  0  0
   -1.6063   -0.5556   -0.6697 N   0  0  0  0  0  0  0  0  0  0  0  0
    4.5649   -0.0455    0.5428 N   0  0  0  0  0  0  0  0  0  0  0  0
   -3.5831    0.7639   -0.7522 N   0  0  0  0  0  0  0  0  0  0  0  0
    1.0427    2.7352   -0.7407 N   0  0  0  0  0  0  0  0  0  0  0  0
   -4.3883    2.7925    0.2889 N   0  0  0  0  0  0  0  0  0  0  0  0
   -3.2268    1.2488    1.5015 N   0  0  0  0  0  0  0  0  0  0  0  0
    3.2190   -1.8230   -0.4981 C   0  0  0  0  0  0  0  0  0  0  0  0
    2.6166   -2.6490    0.6343 C   0  0  0  0  0  0  0  0  0  0  0  0
    0.1247   -2.2817   -0.4480 C   0  0  0  0  0  0  0  0  0  0  0  0
    3.3984   -0.3562   -0.1167 C   0  0  0  0  0  0  0  0  0  0  0  0
   -1.3063   -1.8612   -0.3678 C   0  0  0  0  0  0  0  0  0  0  0  0
   -2.3487   -2.6761   -0.0157 C   0  0  0  0  0  0  0  0  0  0  0  0
   -2.9040   -0.3916   -0.5400 C   0  0  0  0  0  0  0  0  0  0  0  0
   -3.7398    1.5750    0.2675 C   0  0  0  0  0  0  0  0  0  0  0  0
    2.6517   -1.9001   -1.4297 H   0  0  0  0  0  0  0  0  0  0  0  0
    4.2114   -2.2316   -0.7295 H   0  0  0  0  0  0  0  0  0  0  0  0
    2.5401   -3.7009    0.3411 H   0  0  0  0  0  0  0  0  0  0  0  0
    3.2615   -2.6014    1.5181 H   0  0  0  0  0  0  0  0  0  0  0  0
    0.1888   -3.3353   -0.7415 H   0  0  0  0  0  0  0  0  0  0  0  0
    0.5931   -1.6841   -1.2338 H   0  0  0  0  0  0  0  0  0  0  0  0
   -2.3387   -3.7218    0.2570 H   0  0  0  0  0  0  0  0  0  0  0  0
    5.2550   -0.7547    0.7671 H   0  0  0  0  0  0  0  0  0  0  0  0
    4.7748    0.9027    0.8348 H   0  0  0  0  0  0  0  0  0  0  0  0
    0.1716    2.4619   -0.2678 H   0  0  0  0  0  0  0  0  0  0  0  0
    0.9432    2.7530   -1.7638 H   0  0  0  0  0  0  0  0  0  0  0  0
   -4.8196    3.1700   -0.5478 H   0  0  0  0  0  0  0  0  0  0  0  0
   -4.4517    3.3444    1.1373 H   0  0  0  0  0  0  0  0  0  0  0  0
   -3.3465    1.8754    2.2905 H   0  0  0  0  0  0  0  0  0  0  0  0
   -2.7157    0.3935    1.6873 H   0  0  0  0  0  0  0  0  0  0  0  0
  1 14  1  0  0  0  0
  1 15  1  0  0  0  0
  2  4  2  0  0  0  0
  2  5  2  0  0  0  0
  2  6  1  0  0  0  0
  2 10  1  0  0  0  0
  3 18  1  0  0  0  0
  3 19  1  0  0  0  0
  6 16  2  0  0  0  0
  7 17  1  0  0  0  0
  7 19  2  0  0  0  0
  8 16  1  0  0  0  0
  8 28  1  0  0  0  0
  8 29  1  0  0  0  0
  9 19  1  0  0  0  0
  9 20  2  0  0  0  0
 10 30  1  0  0  0  0
 10 31  1  0  0  0  0
 11 20  1  0  0  0  0
 11 32  1  0  0  0  0
 11 33  1  0  0  0  0
 12 20  1  0  0  0  0
 12 34  1  0  0  0  0
 12 35  1  0  0  0  0
 13 14  1  0  0  0  0
 13 16  1  0  0  0  0
 13 21  1  0  0  0  0
 13 22  1  0  0  0  0
 14 23  1  0  0  0  0
 14 24  1  0  0  0  0
 15 17  1  0  0  0  0
 15 25  1  0  0  0  0
 15 26  1  0  0  0  0
 17 18  2  0  0  0  0
 18 27  1  0  0  0  0
M  END
> <PUBCHEM_COMPOUND_CID>
5702160

> <PUBCHEM_CONFORMER_RMSD>
1

> <PUBCHEM_CONFORMER_DIVERSEORDER>
10
78
289
127
94
21
19
343
101
34
57
296
110
304
87
200
287
35
292
100
17
109
282
204
24
299
277
288
219
99
6
77
225
257
31
111
69
203
112
233
279
56
202
166
340
156
301
250
16
122
224
119
221
227
241
239
7
276
347
61
148
36
81
283
251
79
9
92
103
280
124
207
313
302
261
307
218
51
318
286
155
281
167
352
23
209
266
113
39
27
171
80
312
143
116
208
182
13
344
43
240
230
192
134
179
201
268
135
58
175
222
220
97
211
291
30
193
358
72
335
186
114
123
1
82
33
95
236
129
334
348
180
37
147
164
234
133
169
117
46
64
108
284
310
297
141
132
246
263
106
149
356
247
53
198
70
45
333
107
267
196
137
243
73
337
184
104
325
357
4
341
271
66
158
226
157
265
152
217
252
32
228
346
309
238
338
89
44
237
183
5
145
26
242
14
170
71
12
322
270
128
49
20
321
115
162
215
38
323
349
249
290
18
121
67
140
131
74
223
88
160
181
350
126
353
60
306
151
336
86
65
102
41
163
264
8
3
174
178
25
40
144
262
273
176
83
185
195
331
210
68
303
105
293
355
231
260
278
295
305
130
294
317
22
188
90
154
342
319
199
214
173
327
75
320
85
96
120
11
205
259
76
300
197
2
244
332
125
159
254
146
98
345
190
177
189
150
274
315
326
187
42
59
93
47
29
194
258
212
269
339
245
161
153
172
50
311
168
330
232
55
285
216
253
62
63
165
28
48
351
235
91
142
308
136
15
248
275
324
191
54
138
329
118
139
229
314
52
298
255
256
84
328
316
206
213
272
354

> <PUBCHEM_MMFF94_PARTIAL_CHARGES>
29
1 -0.46
10 -0.98
11 -0.85
12 -0.85
13 0.06
14 0.23
15 0.41
16 0.44
17 0.05
18 -0.11
19 0.5
2 1.63
20 0.55
27 0.15
28 0.4
29 0.4
3 -0.08
30 0.42
31 0.42
32 0.4
33 0.4
34 0.4
35 0.4
4 -0.65
5 -0.65
6 -0.64
7 -0.57
8 -0.85
9 -0.58

> <PUBCHEM_EFFECTIVE_ROTOR_COUNT>
7

> <PUBCHEM_PHARMACOPHORE_FEATURES>
8
1 10 donor
1 11 donor
1 12 donor
1 6 donor
1 8 donor
4 1 13 14 15 hydrophobe
4 9 11 12 20 cation
5 3 7 17 18 19 rings

> <PUBCHEM_HEAVY_ATOM_COUNT>
20

> <PUBCHEM_ATOM_DEF_STEREO_COUNT>
0

> <PUBCHEM_ATOM_UDEF_STEREO_COUNT>
0

> <PUBCHEM_BOND_DEF_STEREO_COUNT>
1

> <PUBCHEM_BOND_UDEF_STEREO_COUNT>
0

> <PUBCHEM_ISOTOPIC_ATOM_COUNT>
0

> <PUBCHEM_COMPONENT_COUNT>
1

> <PUBCHEM_CACTVS_TAUTO_COUNT>
6

> <PUBCHEM_CONFORMER_ID>
005702100000000A

> <PUBCHEM_MMFF94_ENERGY>
44.4397

> <PUBCHEM_FEATURE_SELFOVERLAP>
40.691

> <PUBCHEM_SHAPE_FINGERPRINT>
10708813 3 18410577275202148265
11615756 256 18410013277208011638
12633257 1 18261382317810100558
14178342 30 18266447892396795560
14251764 38 18337953492768508672
14466204 15 18336815464596533658
16760501 71 18339088073611287329
17834072 32 18268712706346022467
19930381 70 17545879790517213875
20621476 7 18049449136542939473
21864079 5 18413106143519843239
22182937 141 18411705378828244515
22749437 52 18340480166199341441
23227448 37 18340206293926713471
23558518 356 18190184666366553303
350125 39 18411141359475341667
474 4 18334010601084824643
5048184 11 18410018766303284149
5939293 188 18340201878410234854
7832392 63 18410853222714542446

> <PUBCHEM_SHAPE_MULTIPOLES>
376.53
8.95
4.09
1.03
1.64
1.23
-0.25
3.53
-0.33
-0.26
-0.18
-0.04
0.16
-0.96

> <PUBCHEM_SHAPE_SELFOVERLAP>
724.079

> <PUBCHEM_SHAPE_VOLUME>
231.3

> <PUBCHEM_COORDINATE_TYPE>
2
5
10

$$$$
