69274
  -OEChem-10241807103D

 19 19  0     0  0  0  0  0  0999 V2000
   -2.7859    1.1182   -0.0094 O   0  0  0  0  0  0  0  0  0  0  0  0
   -2.8184   -1.1747    0.0011 N   0  0  0  0  0  0  0  0  0  0  0  0
    2.0906   -0.0125   -0.0012 C   0  0  0  0  0  0  0  0  0  0  0  0
   -0.6988    0.0268    0.0035 C   0  0  0  0  0  0  0  0  0  0  0  0
    1.3762   -1.2105   -0.0023 C   0  0  0  0  0  0  0  0  0  0  0  0
    1.4104    1.2051    0.0023 C   0  0  0  0  0  0  0  0  0  0  0  0
   -0.0186   -1.1909   -0.0001 C   0  0  0  0  0  0  0  0  0  0  0  0
    0.0156    1.2249    0.0047 C   0  0  0  0  0  0  0  0  0  0  0  0
    3.5819   -0.0342   -0.0026 C   0  0  0  0  0  0  0  0  0  0  0  0
   -2.1530    0.0478    0.0041 C   0  0  0  0  0  0  0  0  0  0  0  0
    1.8961   -2.1651   -0.0068 H   0  0  0  0  0  0  0  0  0  0  0  0
    1.9559    2.1451    0.0015 H   0  0  0  0  0  0  0  0  0  0  0  0
   -0.5073   -2.1576   -0.0022 H   0  0  0  0  0  0  0  0  0  0  0  0
   -0.4916    2.1861    0.0070 H   0  0  0  0  0  0  0  0  0  0  0  0
    3.9908    0.8454    0.5062 H   0  0  0  0  0  0  0  0  0  0  0  0
    3.9644   -0.9152    0.5241 H   0  0  0  0  0  0  0  0  0  0  0  0
    3.9564   -0.0499   -1.0309 H   0  0  0  0  0  0  0  0  0  0  0  0
   -2.3839   -2.0883    0.0071 H   0  0  0  0  0  0  0  0  0  0  0  0
   -3.8335   -1.1871   -0.0056 H   0  0  0  0  0  0  0  0  0  0  0  0
  1 10  2  0  0  0  0
  2 10  1  0  0  0  0
  2 18  1  0  0  0  0
  2 19  1  0  0  0  0
  3  5  2  0  0  0  0
  3  6  1  0  0  0  0
  3  9  1  0  0  0  0
  4  7  2  0  0  0  0
  4  8  1  0  0  0  0
  4 10  1  0  0  0  0
  5  7  1  0  0  0  0
  5 11  1  0  0  0  0
  6  8  2  0  0  0  0
  6 12  1  0  0  0  0
  7 13  1  0  0  0  0
  8 14  1  0  0  0  0
  9 15  1  0  0  0  0
  9 16  1  0  0  0  0
  9 17  1  0  0  0  0
M  END
> <PUBCHEM_COMPOUND_CID>
69274

> <PUBCHEM_CONFORMER_RMSD>
0.4

> <PUBCHEM_CONFORMER_DIVERSEORDER>
1

> <PUBCHEM_MMFF94_PARTIAL_CHARGES>
16
1 -0.57
10 0.54
11 0.15
12 0.15
13 0.15
14 0.15
18 0.37
19 0.37
2 -0.8
3 -0.14
4 0.09
5 -0.15
6 -0.15
7 -0.15
8 -0.15
9 0.14

> <PUBCHEM_EFFECTIVE_ROTOR_COUNT>
1

> <PUBCHEM_PHARMACOPHORE_FEATURES>
3
1 1 acceptor
1 2 donor
6 3 4 5 6 7 8 rings

> <PUBCHEM_HEAVY_ATOM_COUNT>
10

> <PUBCHEM_ATOM_DEF_STEREO_COUNT>
0

> <PUBCHEM_ATOM_UDEF_STEREO_COUNT>
0

> <PUBCHEM_BOND_DEF_STEREO_COUNT>
0

> <PUBCHEM_BOND_UDEF_STEREO_COUNT>
0

> <PUBCHEM_ISOTOPIC_ATOM_COUNT>
0

> <PUBCHEM_COMPONENT_COUNT>
1

> <PUBCHEM_CACTVS_TAUTO_COUNT>
2

> <PUBCHEM_CONFORMER_ID>
00010E9A00000001

> <PUBCHEM_MMFF94_ENERGY>
28.3491

> <PUBCHEM_FEATURE_SELFOVERLAP>
15.223

> <PUBCHEM_SHAPE_FINGERPRINT>
10857977 72 18411409635510902906
12032990 46 18412270536278746310
12897270 3 18411417293405936485
12932764 1 17240757371987354741
14128692 85 18270682081457167383
14325111 11 18410575102085710112
16945 1 18410856534007194304
193761 8 17546164563959969672
20201158 50 18409165493682103827
21040471 1 18338517568150879104
23235685 24 18410288103875963368
23402655 69 18196637528944574453
23552423 10 18333171673712539207
2748010 2 18194683906601942996
29004967 10 18409170995498085520
5084963 1 18270965751151577873
528886 8 18411412882490354305

> <PUBCHEM_SHAPE_MULTIPOLES>
194.94
4.56
1.42
0.6
0.17
0
0
0.1
0.01
-0.22
0
0.05
0
0

> <PUBCHEM_SHAPE_SELFOVERLAP>
406.502

> <PUBCHEM_SHAPE_VOLUME>
111.2

> <PUBCHEM_COORDINATE_TYPE>
2
5
10

$$$$
