76079
  -OEChem-03111922393D

 18 18  0     0  0  0  0  0  0999 V2000
   -2.7776   -1.1187    0.0097 O   0  0  0  0  0  0  0  0  0  0  0  0
    3.5090    0.0336    0.0038 N   0  0  0  0  0  0  0  0  0  0  0  0
   -2.8104    1.1742   -0.0011 N   0  0  0  0  0  0  0  0  0  0  0  0
   -0.6907   -0.0271   -0.0033 C   0  0  0  0  0  0  0  0  0  0  0  0
    2.0987    0.0135    0.0005 C   0  0  0  0  0  0  0  0  0  0  0  0
   -0.0110    1.1909    0.0002 C   0  0  0  0  0  0  0  0  0  0  0  0
    0.0242   -1.2248   -0.0048 C   0  0  0  0  0  0  0  0  0  0  0  0
    1.3838    1.2111    0.0019 C   0  0  0  0  0  0  0  0  0  0  0  0
    1.4190   -1.2045   -0.0028 C   0  0  0  0  0  0  0  0  0  0  0  0
   -2.1450   -0.0483   -0.0040 C   0  0  0  0  0  0  0  0  0  0  0  0
   -0.5000    2.1576    0.0022 H   0  0  0  0  0  0  0  0  0  0  0  0
   -0.4825   -2.1863   -0.0074 H   0  0  0  0  0  0  0  0  0  0  0  0
    1.9032    2.1662    0.0049 H   0  0  0  0  0  0  0  0  0  0  0  0
    1.9649   -2.1444   -0.0038 H   0  0  0  0  0  0  0  0  0  0  0  0
    4.0277   -0.8346    0.0006 H   0  0  0  0  0  0  0  0  0  0  0  0
    4.0027    0.9163    0.0041 H   0  0  0  0  0  0  0  0  0  0  0  0
   -2.3761    2.0879   -0.0073 H   0  0  0  0  0  0  0  0  0  0  0  0
   -3.8256    1.1865    0.0055 H   0  0  0  0  0  0  0  0  0  0  0  0
  1 10  2  0  0  0  0
  2  5  1  0  0  0  0
  2 15  1  0  0  0  0
  2 16  1  0  0  0  0
  3 10  1  0  0  0  0
  3 17  1  0  0  0  0
  3 18  1  0  0  0  0
  4  6  2  0  0  0  0
  4  7  1  0  0  0  0
  4 10  1  0  0  0  0
  5  8  2  0  0  0  0
  5  9  1  0  0  0  0
  6  8  1  0  0  0  0
  6 11  1  0  0  0  0
  7  9  2  0  0  0  0
  7 12  1  0  0  0  0
  8 13  1  0  0  0  0
  9 14  1  0  0  0  0
M  END
> <PUBCHEM_COMPOUND_CID>
76079

> <PUBCHEM_CONFORMER_RMSD>
0.4

> <PUBCHEM_CONFORMER_DIVERSEORDER>
1

> <PUBCHEM_MMFF94_PARTIAL_CHARGES>
18
1 -0.57
10 0.54
11 0.15
12 0.15
13 0.15
14 0.15
15 0.4
16 0.4
17 0.37
18 0.37
2 -0.9
3 -0.8
4 0.09
5 0.1
6 -0.15
7 -0.15
8 -0.15
9 -0.15

> <PUBCHEM_EFFECTIVE_ROTOR_COUNT>
1

> <PUBCHEM_PHARMACOPHORE_FEATURES>
5
1 1 acceptor
1 2 cation
1 2 donor
1 3 donor
6 4 5 6 7 8 9 rings

> <PUBCHEM_HEAVY_ATOM_COUNT>
10

> <PUBCHEM_ATOM_DEF_STEREO_COUNT>
0

> <PUBCHEM_ATOM_UDEF_STEREO_COUNT>
0

> <PUBCHEM_BOND_DEF_STEREO_COUNT>
0

> <PUBCHEM_BOND_UDEF_STEREO_COUNT>
0

> <PUBCHEM_ISOTOPIC_ATOM_COUNT>
0

> <PUBCHEM_COMPONENT_COUNT>
1

> <PUBCHEM_CACTVS_TAUTO_COUNT>
5

> <PUBCHEM_CONFORMER_ID>
0001292F00000001

> <PUBCHEM_MMFF94_ENERGY>
38.6558

> <PUBCHEM_FEATURE_SELFOVERLAP>
25.371

> <PUBCHEM_SHAPE_FINGERPRINT>
10857977 72 18411127065285889762
12032990 46 18411990160803133414
12897270 3 18411417297732545805
12932764 1 17346591997658865055
14325111 11 18410855481787770500
16945 1 18410855494567079918
193761 8 17546165199594023974
20201158 50 18408884023053107979
21040471 1 18338797947884542532
23235685 24 18410288108123457896
23402655 69 18268695127293261453
23552423 10 18333454231042146439
2748010 2 18411136947995055749
29004967 10 18408889524795269122
5084963 1 18271528705436870265
528886 8 18411131411829716449

> <PUBCHEM_SHAPE_MULTIPOLES>
189.96
4.3
1.43
0.59
0.13
0
0
0.09
-0.01
0.18
0
-0.02
0
0

> <PUBCHEM_SHAPE_SELFOVERLAP>
398.566

> <PUBCHEM_SHAPE_VOLUME>
107

> <PUBCHEM_COORDINATE_TYPE>
2
5
10

$$$$
