10704
  -OEChem-10241807083D

 19 19  0     0  0  0  0  0  0999 V2000
    2.3435    0.3571   -1.1178 O   0  0  0  0  0  0  0  0  0  0  0  0
    2.3808    0.3522    1.1751 N   0  0  0  0  0  0  0  0  0  0  0  0
   -0.4021   -0.9809   -0.0056 C   0  0  0  0  0  0  0  0  0  0  0  0
    0.2616    0.2460   -0.0222 C   0  0  0  0  0  0  0  0  0  0  0  0
   -1.7963   -1.0194    0.0168 C   0  0  0  0  0  0  0  0  0  0  0  0
   -0.4691    1.4342   -0.0163 C   0  0  0  0  0  0  0  0  0  0  0  0
    0.3556   -2.2687   -0.0124 C   0  0  0  0  0  0  0  0  0  0  0  0
   -2.5269    0.1688    0.0226 C   0  0  0  0  0  0  0  0  0  0  0  0
   -1.8634    1.3955    0.0060 C   0  0  0  0  0  0  0  0  0  0  0  0
    1.7163    0.3152   -0.0462 C   0  0  0  0  0  0  0  0  0  0  0  0
   -2.3294   -1.9663    0.0302 H   0  0  0  0  0  0  0  0  0  0  0  0
    0.0362    2.3966   -0.0295 H   0  0  0  0  0  0  0  0  0  0  0  0
    0.9649   -2.3598    0.8927 H   0  0  0  0  0  0  0  0  0  0  0  0
   -0.3143   -3.1350   -0.0435 H   0  0  0  0  0  0  0  0  0  0  0  0
    1.0030   -2.3300   -0.8935 H   0  0  0  0  0  0  0  0  0  0  0  0
   -3.6124    0.1389    0.0400 H   0  0  0  0  0  0  0  0  0  0  0  0
   -2.4323    2.3206    0.0105 H   0  0  0  0  0  0  0  0  0  0  0  0
    1.8842    0.3252    2.0600 H   0  0  0  0  0  0  0  0  0  0  0  0
    3.3930    0.4065    1.2171 H   0  0  0  0  0  0  0  0  0  0  0  0
  1 10  2  0  0  0  0
  2 10  1  0  0  0  0
  2 18  1  0  0  0  0
  2 19  1  0  0  0  0
  3  4  1  0  0  0  0
  3  5  2  0  0  0  0
  3  7  1  0  0  0  0
  4  6  2  0  0  0  0
  4 10  1  0  0  0  0
  5  8  1  0  0  0  0
  5 11  1  0  0  0  0
  6  9  1  0  0  0  0
  6 12  1  0  0  0  0
  7 13  1  0  0  0  0
  7 14  1  0  0  0  0
  7 15  1  0  0  0  0
  8  9  2  0  0  0  0
  8 16  1  0  0  0  0
  9 17  1  0  0  0  0
M  END
> <PUBCHEM_COMPOUND_CID>
10704

> <PUBCHEM_CONFORMER_RMSD>
0.4

> <PUBCHEM_CONFORMER_DIVERSEORDER>
2
3
1

> <PUBCHEM_MMFF94_PARTIAL_CHARGES>
16
1 -0.57
10 0.54
11 0.15
12 0.15
16 0.15
17 0.15
18 0.37
19 0.37
2 -0.8
3 -0.14
4 0.09
5 -0.15
6 -0.15
7 0.14
8 -0.15
9 -0.15

> <PUBCHEM_EFFECTIVE_ROTOR_COUNT>
1

> <PUBCHEM_PHARMACOPHORE_FEATURES>
3
1 1 acceptor
1 2 donor
6 3 4 5 6 8 9 rings

> <PUBCHEM_HEAVY_ATOM_COUNT>
10

> <PUBCHEM_ATOM_DEF_STEREO_COUNT>
0

> <PUBCHEM_ATOM_UDEF_STEREO_COUNT>
0

> <PUBCHEM_BOND_DEF_STEREO_COUNT>
0

> <PUBCHEM_BOND_UDEF_STEREO_COUNT>
0

> <PUBCHEM_ISOTOPIC_ATOM_COUNT>
0

> <PUBCHEM_COMPONENT_COUNT>
1

> <PUBCHEM_CACTVS_TAUTO_COUNT>
2

> <PUBCHEM_CONFORMER_ID>
000029D000000002

> <PUBCHEM_MMFF94_ENERGY>
31.6382

> <PUBCHEM_FEATURE_SELFOVERLAP>
15.223

> <PUBCHEM_SHAPE_FINGERPRINT>
10857977 72 18340482378281572361
12423570 1 15375898678270876362
12524768 44 17982173627558211781
15310529 11 16660639708545318597
16945 1 18410856568630670285
20645464 45 17988635346100061240
20871998 184 18055917851132722870
21040471 1 18410856533875267055
23211744 41 17845920927089795208
23235685 24 18408046195245477309
23552423 10 18189622631167371479
2748010 2 18121221978786280845
29004967 10 16272213002433669304
369184 2 18131058359662780344
5084963 1 18201731655692254020

> <PUBCHEM_SHAPE_MULTIPOLES>
194.94
3.2
1.81
0.8
0.4
0.82
-0.02
-0.74
-0.07
-0.28
0.01
0.46
-0.09
0.01

> <PUBCHEM_SHAPE_SELFOVERLAP>
406.898

> <PUBCHEM_SHAPE_VOLUME>
111.6

> <PUBCHEM_COORDINATE_TYPE>
2
5
10

$$$$
