132999
  -OEChem-03101921373D

 70 73  0     1  0  0  0  0  0999 V2000
   -5.0532   -0.0175    1.8875 O   0  0  0  0  0  0  0  0  0  0  0  0
   -5.8917   -0.3651   -0.7374 O   0  0  0  0  0  0  0  0  0  0  0  0
    4.1325   -0.6397    2.1471 O   0  0  0  0  0  0  0  0  0  0  0  0
   -0.8319    3.1890   -1.3486 O   0  0  0  0  0  0  0  0  0  0  0  0
   -0.0318    4.0768    1.1609 O   0  0  0  0  0  0  0  0  0  0  0  0
    1.0146   -3.3754    0.0898 N   0  0  1  0  0  0  0  0  0  0  0  0
    4.5049   -0.7123   -0.1468 N   0  0  0  0  0  0  0  0  0  0  0  0
   -0.5719   -1.4978    0.0110 C   0  0  1  0  0  0  0  0  0  0  0  0
   -1.0443   -1.6926   -1.4687 C   0  0  0  0  0  0  0  0  0  0  0  0
   -1.9851   -1.0924    0.3075 C   0  0  0  0  0  0  0  0  0  0  0  0
   -2.3997   -1.2640   -0.9912 C   0  0  0  0  0  0  0  0  0  0  0  0
   -0.1587   -2.7750    0.7271 C   0  0  0  0  0  0  0  0  0  0  0  0
   -2.8421   -0.6768    1.2991 C   0  0  0  0  0  0  0  0  0  0  0  0
    2.2267   -2.6574    0.4652 C   0  0  0  0  0  0  0  0  0  0  0  0
   -3.6977   -1.0308   -1.3804 C   0  0  0  0  0  0  0  0  0  0  0  0
    3.3574   -2.8763   -0.5442 C   0  0  0  0  0  0  0  0  0  0  0  0
   -4.1688   -0.4317    0.9357 C   0  0  0  0  0  0  0  0  0  0  0  0
   -4.5938   -0.6076   -0.3956 C   0  0  0  0  0  0  0  0  0  0  0  0
    4.6605   -2.1589   -0.1974 C   0  0  0  0  0  0  0  0  0  0  0  0
    1.1204   -4.7901    0.4516 C   0  0  0  0  0  0  0  0  0  0  0  0
    4.5296    0.0067   -1.4178 C   0  0  0  0  0  0  0  0  0  0  0  0
    3.1283    0.4251   -1.8517 C   0  0  0  0  0  0  0  0  0  0  0  0
    4.2307   -0.0710    1.0583 C   0  0  0  0  0  0  0  0  0  0  0  0
    2.3667    1.4021   -0.9784 C   0  0  0  0  0  0  0  0  0  0  0  0
    4.0536    1.4290    0.9656 C   0  0  0  0  0  0  0  0  0  0  0  0
    2.7626    1.8409    0.3019 C   0  0  0  0  0  0  0  0  0  0  0  0
    1.1447    1.8714   -1.5057 C   0  0  0  0  0  0  0  0  0  0  0  0
    1.9376    2.7485    0.9971 C   0  0  0  0  0  0  0  0  0  0  0  0
    0.3385    2.7619   -0.7992 C   0  0  0  0  0  0  0  0  0  0  0  0
    0.7368    3.2025    0.4542 C   0  0  0  0  0  0  0  0  0  0  0  0
   -4.5513    0.1385    3.2127 C   0  0  0  0  0  0  0  0  0  0  0  0
   -6.2487   -0.5647   -2.1030 C   0  0  0  0  0  0  0  0  0  0  0  0
   -1.1637    2.6853   -2.6414 C   0  0  0  0  0  0  0  0  0  0  0  0
   -1.0117    3.5192    2.0348 C   0  0  0  0  0  0  0  0  0  0  0  0
    0.1451   -0.6766    0.1272 H   0  0  0  0  0  0  0  0  0  0  0  0
   -0.9784   -2.7140   -1.8604 H   0  0  0  0  0  0  0  0  0  0  0  0
   -0.5512   -1.0244   -2.1838 H   0  0  0  0  0  0  0  0  0  0  0  0
    0.0221   -2.5812    1.7931 H   0  0  0  0  0  0  0  0  0  0  0  0
   -0.9938   -3.4888    0.6853 H   0  0  0  0  0  0  0  0  0  0  0  0
   -2.4373   -0.5649    2.2964 H   0  0  0  0  0  0  0  0  0  0  0  0
    2.0311   -1.5825    0.4949 H   0  0  0  0  0  0  0  0  0  0  0  0
    2.5572   -2.9337    1.4751 H   0  0  0  0  0  0  0  0  0  0  0  0
   -3.9442   -1.1886   -2.4221 H   0  0  0  0  0  0  0  0  0  0  0  0
    3.0226   -2.5790   -1.5445 H   0  0  0  0  0  0  0  0  0  0  0  0
    3.5938   -3.9446   -0.6116 H   0  0  0  0  0  0  0  0  0  0  0  0
    5.4419   -2.4061   -0.9246 H   0  0  0  0  0  0  0  0  0  0  0  0
    5.0135   -2.5132    0.7783 H   0  0  0  0  0  0  0  0  0  0  0  0
    1.2403   -4.9333    1.5318 H   0  0  0  0  0  0  0  0  0  0  0  0
    0.2232   -5.3340    0.1339 H   0  0  0  0  0  0  0  0  0  0  0  0
    1.9582   -5.2770   -0.0564 H   0  0  0  0  0  0  0  0  0  0  0  0
    5.1878    0.8770   -1.3334 H   0  0  0  0  0  0  0  0  0  0  0  0
    4.9720   -0.6386   -2.1856 H   0  0  0  0  0  0  0  0  0  0  0  0
    3.2258    0.8794   -2.8469 H   0  0  0  0  0  0  0  0  0  0  0  0
    2.4998   -0.4647   -1.9707 H   0  0  0  0  0  0  0  0  0  0  0  0
    4.9073    1.8985    0.4667 H   0  0  0  0  0  0  0  0  0  0  0  0
    4.0858    1.8080    1.9960 H   0  0  0  0  0  0  0  0  0  0  0  0
    0.8769    1.4932   -2.4882 H   0  0  0  0  0  0  0  0  0  0  0  0
    2.2366    3.1086    1.9801 H   0  0  0  0  0  0  0  0  0  0  0  0
   -5.3866    0.4720    3.8371 H   0  0  0  0  0  0  0  0  0  0  0  0
   -3.7844    0.9191    3.2644 H   0  0  0  0  0  0  0  0  0  0  0  0
   -4.2043   -0.8139    3.6278 H   0  0  0  0  0  0  0  0  0  0  0  0
   -5.7103    0.1217   -2.7654 H   0  0  0  0  0  0  0  0  0  0  0  0
   -6.1297   -1.6115   -2.4026 H   0  0  0  0  0  0  0  0  0  0  0  0
   -7.3134   -0.3266   -2.1963 H   0  0  0  0  0  0  0  0  0  0  0  0
   -0.4359    2.9999   -3.3970 H   0  0  0  0  0  0  0  0  0  0  0  0
   -1.3097    1.6000   -2.6266 H   0  0  0  0  0  0  0  0  0  0  0  0
   -2.1244    3.1295   -2.9223 H   0  0  0  0  0  0  0  0  0  0  0  0
   -1.7298    2.9133    1.4730 H   0  0  0  0  0  0  0  0  0  0  0  0
   -0.5329    2.9112    2.8090 H   0  0  0  0  0  0  0  0  0  0  0  0
   -1.5485    4.3407    2.5168 H   0  0  0  0  0  0  0  0  0  0  0  0
  1 17  1  0  0  0  0
  1 31  1  0  0  0  0
  2 18  1  0  0  0  0
  2 32  1  0  0  0  0
  3 23  2  0  0  0  0
  4 29  1  0  0  0  0
  4 33  1  0  0  0  0
  5 30  1  0  0  0  0
  5 34  1  0  0  0  0
  6 12  1  0  0  0  0
  6 14  1  0  0  0  0
  6 20  1  0  0  0  0
  7 19  1  0  0  0  0
  7 21  1  0  0  0  0
  7 23  1  0  0  0  0
  8  9  1  0  0  0  0
  8 10  1  0  0  0  0
  8 12  1  0  0  0  0
  8 35  1  0  0  0  0
  9 11  1  0  0  0  0
  9 36  1  0  0  0  0
  9 37  1  0  0  0  0
 10 11  1  0  0  0  0
 10 13  2  0  0  0  0
 11 15  2  0  0  0  0
 12 38  1  0  0  0  0
 12 39  1  0  0  0  0
 13 17  1  0  0  0  0
 13 40  1  0  0  0  0
 14 16  1  0  0  0  0
 14 41  1  0  0  0  0
 14 42  1  0  0  0  0
 15 18  1  0  0  0  0
 15 43  1  0  0  0  0
 16 19  1  0  0  0  0
 16 44  1  0  0  0  0
 16 45  1  0  0  0  0
 17 18  2  0  0  0  0
 19 46  1  0  0  0  0
 19 47  1  0  0  0  0
 20 48  1  0  0  0  0
 20 49  1  0  0  0  0
 20 50  1  0  0  0  0
 21 22  1  0  0  0  0
 21 51  1  0  0  0  0
 21 52  1  0  0  0  0
 22 24  1  0  0  0  0
 22 53  1  0  0  0  0
 22 54  1  0  0  0  0
 23 25  1  0  0  0  0
 24 26  1  0  0  0  0
 24 27  2  0  0  0  0
 25 26  1  0  0  0  0
 25 55  1  0  0  0  0
 25 56  1  0  0  0  0
 26 28  2  0  0  0  0
 27 29  1  0  0  0  0
 27 57  1  0  0  0  0
 28 30  1  0  0  0  0
 28 58  1  0  0  0  0
 29 30  2  0  0  0  0
 31 59  1  0  0  0  0
 31 60  1  0  0  0  0
 31 61  1  0  0  0  0
 32 62  1  0  0  0  0
 32 63  1  0  0  0  0
 32 64  1  0  0  0  0
 33 65  1  0  0  0  0
 33 66  1  0  0  0  0
 33 67  1  0  0  0  0
 34 68  1  0  0  0  0
 34 69  1  0  0  0  0
 34 70  1  0  0  0  0
M  END
> <PUBCHEM_COMPOUND_CID>
132999

> <PUBCHEM_CONFORMER_RMSD>
1.2

> <PUBCHEM_CONFORMER_DIVERSEORDER>
1
104
18
93
73
4
83
24
172
98
162
57
109
155
130
85
114
70
147
96
87
2
71
187
131
128
81
182
80
160
66
3
112
20
125
61
143
17
64
72
144
65
129
45
152
168
54
158
157
111
159
113
29
77
30
153
50
139
135
171
122
134
97
176
99
49
13
41
174
173
55
60
6
136
8
148
179
19
36
185
151
68
165
161
100
107
149
69
67
102
22
63
51
14
88
142
28
47
127
132
108
110
133
115
184
59
39
78
186
141
32
175
106
15
23
117
34
137
53
86
150
33
79
101
31
146
123
11
124
5
38
95
75
140
118
145
154
178
89
12
91
183
48
7
27
103
121
76
120
40
43
44
94
10
74
166
156
92
177
52
35
138
42
82
119
164
126
105
116
163
58
46
25
90
26
181
169
21
84
37
180
170
16
62
56
167
9

> <PUBCHEM_MMFF94_PARTIAL_CHARGES>
37
1 -0.36
10 -0.11
11 -0.11
12 0.27
13 -0.15
14 0.27
15 -0.15
17 0.08
18 0.08
19 0.3
2 -0.36
20 0.27
21 0.3
22 0.14
23 0.57
24 -0.14
25 0.2
26 -0.14
27 -0.15
28 -0.15
29 0.08
3 -0.57
30 0.08
31 0.28
32 0.28
33 0.28
34 0.28
4 -0.36
40 0.15
43 0.15
5 -0.36
57 0.15
58 0.15
6 -0.81
7 -0.66
8 0.11
9 0.11

> <PUBCHEM_EFFECTIVE_ROTOR_COUNT>
11.2

> <PUBCHEM_PHARMACOPHORE_FEATURES>
10
1 1 acceptor
1 2 acceptor
1 3 acceptor
1 4 acceptor
1 5 acceptor
1 6 cation
4 8 9 10 11 rings
6 10 11 13 15 17 18 rings
6 24 26 27 28 29 30 rings
7 7 21 22 23 24 25 26 rings

> <PUBCHEM_HEAVY_ATOM_COUNT>
34

> <PUBCHEM_ATOM_DEF_STEREO_COUNT>
1

> <PUBCHEM_ATOM_UDEF_STEREO_COUNT>
0

> <PUBCHEM_BOND_DEF_STEREO_COUNT>
0

> <PUBCHEM_BOND_UDEF_STEREO_COUNT>
0

> <PUBCHEM_ISOTOPIC_ATOM_COUNT>
0

> <PUBCHEM_COMPONENT_COUNT>
1

> <PUBCHEM_CACTVS_TAUTO_COUNT>
1

> <PUBCHEM_CONFORMER_ID>
0002078700000001

> <PUBCHEM_MMFF94_ENERGY>
131.5369

> <PUBCHEM_FEATURE_SELFOVERLAP>
51.013

> <PUBCHEM_SHAPE_FINGERPRINT>
10119406 146 15459026980059850223
10675989 125 18411978100398043776
11513181 2 17843696468858919607
12156800 1 17465624971953003448
12422481 6 18195546808814121065
12633257 1 18196073659635815560
12788726 201 18339375097527651316
13075007 39 17823154460847557059
13692114 37 17624421874919429041
13692115 46 15756299825716067966
13782708 43 17313674853687442475
14114211 80 18121807133805434582
14178342 30 17255112875283981724
150020 26 18044106871678557833
151778 21 17753913884108347653
15328829 1 17846504734417522171
20511986 3 17560506396096066693
20764821 26 18123745357792704792
20775530 9 18119538630779525946
3027735 51 18262797350346087845
463206 1 18340199786397574206
469060 322 17534367564508613852
474 4 18412821412699803819
508706 21 17749668468398706925
513532 50 17988643043114290918

> <PUBCHEM_SHAPE_MULTIPOLES>
660.4
10.83
5.13
2.35
9.18
0.21
-0.4
-3.6
-0.09
-3.26
-0.77
2.29
1.28
-0.41

> <PUBCHEM_SHAPE_SELFOVERLAP>
1400.076

> <PUBCHEM_SHAPE_VOLUME>
372.1

> <PUBCHEM_COORDINATE_TYPE>
2
5
10

$$$$
