75540
  -OEChem-10241807053D

 20 20  0     0  0  0  0  0  0999 V2000
   -0.3848   -1.8615    0.0025 O   0  0  0  0  0  0  0  0  0  0  0  0
    2.1119   -1.3307   -0.0112 O   0  0  0  0  0  0  0  0  0  0  0  0
    2.8797    0.8301    0.0041 N   0  0  0  0  0  0  0  0  0  0  0  0
    0.4865    0.3736    0.0018 C   0  0  0  0  0  0  0  0  0  0  0  0
   -0.5894   -0.5141    0.0015 C   0  0  0  0  0  0  0  0  0  0  0  0
    0.2556    1.7493    0.0002 C   0  0  0  0  0  0  0  0  0  0  0  0
   -1.8961   -0.0263   -0.0006 C   0  0  0  0  0  0  0  0  0  0  0  0
   -1.0512    2.2371   -0.0020 C   0  0  0  0  0  0  0  0  0  0  0  0
   -2.1271    1.3494   -0.0025 C   0  0  0  0  0  0  0  0  0  0  0  0
    1.8586   -0.1143    0.0040 C   0  0  0  0  0  0  0  0  0  0  0  0
   -1.5437   -2.6924    0.0021 C   0  0  0  0  0  0  0  0  0  0  0  0
    1.0357    2.5003   -0.0003 H   0  0  0  0  0  0  0  0  0  0  0  0
   -2.7809   -0.6533   -0.0010 H   0  0  0  0  0  0  0  0  0  0  0  0
   -1.2325    3.3081   -0.0035 H   0  0  0  0  0  0  0  0  0  0  0  0
   -3.1442    1.7305   -0.0043 H   0  0  0  0  0  0  0  0  0  0  0  0
   -2.1366   -2.5589   -0.9093 H   0  0  0  0  0  0  0  0  0  0  0  0
   -2.1385   -2.5574    0.9119 H   0  0  0  0  0  0  0  0  0  0  0  0
   -1.1949   -3.7305    0.0033 H   0  0  0  0  0  0  0  0  0  0  0  0
    2.7678    1.8353    0.0121 H   0  0  0  0  0  0  0  0  0  0  0  0
    3.8446    0.5139   -0.0017 H   0  0  0  0  0  0  0  0  0  0  0  0
  1  5  1  0  0  0  0
  1 11  1  0  0  0  0
  2 10  2  0  0  0  0
  3 10  1  0  0  0  0
  3 19  1  0  0  0  0
  3 20  1  0  0  0  0
  4  5  1  0  0  0  0
  4  6  2  0  0  0  0
  4 10  1  0  0  0  0
  5  7  2  0  0  0  0
  6  8  1  0  0  0  0
  6 12  1  0  0  0  0
  7  9  1  0  0  0  0
  7 13  1  0  0  0  0
  8  9  2  0  0  0  0
  8 14  1  0  0  0  0
  9 15  1  0  0  0  0
 11 16  1  0  0  0  0
 11 17  1  0  0  0  0
 11 18  1  0  0  0  0
M  END
> <PUBCHEM_COMPOUND_CID>
75540

> <PUBCHEM_CONFORMER_RMSD>
0.4

> <PUBCHEM_CONFORMER_DIVERSEORDER>
10
3
4
11
2
9
5
7
6
1
12
8

> <PUBCHEM_MMFF94_PARTIAL_CHARGES>
17
1 -0.36
10 0.54
11 0.28
12 0.15
13 0.15
14 0.15
15 0.15
19 0.37
2 -0.57
20 0.37
3 -0.8
4 0.09
5 0.08
6 -0.15
7 -0.15
8 -0.15
9 -0.15

> <PUBCHEM_EFFECTIVE_ROTOR_COUNT>
2

> <PUBCHEM_PHARMACOPHORE_FEATURES>
4
1 1 acceptor
1 2 acceptor
1 3 donor
6 4 5 6 7 8 9 rings

> <PUBCHEM_HEAVY_ATOM_COUNT>
11

> <PUBCHEM_ATOM_DEF_STEREO_COUNT>
0

> <PUBCHEM_ATOM_UDEF_STEREO_COUNT>
0

> <PUBCHEM_BOND_DEF_STEREO_COUNT>
0

> <PUBCHEM_BOND_UDEF_STEREO_COUNT>
0

> <PUBCHEM_ISOTOPIC_ATOM_COUNT>
0

> <PUBCHEM_COMPONENT_COUNT>
1

> <PUBCHEM_CACTVS_TAUTO_COUNT>
2

> <PUBCHEM_CONFORMER_ID>
000127140000000A

> <PUBCHEM_MMFF94_ENERGY>
43.0482

> <PUBCHEM_FEATURE_SELFOVERLAP>
20.312

> <PUBCHEM_SHAPE_FINGERPRINT>
1 1 17905886972608178437
12423570 1 14093320237149526433
16945 1 18410575127644712196
18185500 45 18193560196975408006
193761 8 17978228584507570405
20871998 184 18200879594357944214
21040471 1 18338516335453145088
23552423 10 18118970191514605996
241688 4 18121780800917506233
2748010 2 18265337209442713381
5084963 1 17914607259410217144

> <PUBCHEM_SHAPE_MULTIPOLES>
209.66
3.06
2.73
0.59
1.72
0.88
0
0.04
0
-1.43
0
-0.04
-0.02
0

> <PUBCHEM_SHAPE_SELFOVERLAP>
438.917

> <PUBCHEM_SHAPE_VOLUME>
118.8

> <PUBCHEM_COORDINATE_TYPE>
2
5
10

$$$$
