8497
  -OEChem-03111921493D

 17 17  0     0  0  0  0  0  0999 V2000
   -3.5290    0.1757   -0.0007 O   0  0  0  0  0  0  0  0  0  0  0  0
   -2.5544   -1.8777   -0.0003 O   0  0  0  0  0  0  0  0  0  0  0  0
    3.5322    0.0538   -0.0014 O   0  5  0  0  0  0  0  0  0  0  0  0
    2.4476   -1.8548    0.0007 O   0  0  0  0  0  0  0  0  0  0  0  0
    2.4613   -0.6002   -0.0003 N   0  3  0  0  0  0  0  0  0  0  0  0
   -1.1893    0.0871    0.0008 C   0  0  0  0  0  0  0  0  0  0  0  0
    1.2267    0.1015    0.0005 C   0  0  0  0  0  0  0  0  0  0  0  0
    0.0228   -0.6032    0.0009 C   0  0  0  0  0  0  0  0  0  0  0  0
   -1.1976    1.4820    0.0004 C   0  0  0  0  0  0  0  0  0  0  0  0
    1.2182    1.4964    0.0000 C   0  0  0  0  0  0  0  0  0  0  0  0
    0.0061    2.1867    0.0000 C   0  0  0  0  0  0  0  0  0  0  0  0
   -2.4446   -0.6472   -0.0005 C   0  0  0  0  0  0  0  0  0  0  0  0
    0.0127   -1.6909    0.0008 H   0  0  0  0  0  0  0  0  0  0  0  0
   -2.1179    2.0592    0.0000 H   0  0  0  0  0  0  0  0  0  0  0  0
    2.1362    2.0786   -0.0004 H   0  0  0  0  0  0  0  0  0  0  0  0
   -0.0002    3.2729   -0.0004 H   0  0  0  0  0  0  0  0  0  0  0  0
   -4.3701   -0.3291   -0.0010 H   0  0  0  0  0  0  0  0  0  0  0  0
  1 12  1  0  0  0  0
  1 17  1  0  0  0  0
  2 12  2  0  0  0  0
  3  5  1  0  0  0  0
  4  5  2  0  0  0  0
  5  7  1  0  0  0  0
  6  8  2  0  0  0  0
  6  9  1  0  0  0  0
  6 12  1  0  0  0  0
  7  8  1  0  0  0  0
  7 10  2  0  0  0  0
  8 13  1  0  0  0  0
  9 11  2  0  0  0  0
  9 14  1  0  0  0  0
 10 11  1  0  0  0  0
 10 15  1  0  0  0  0
 11 16  1  0  0  0  0
M  CHG  2   3  -1   5   1
M  END
> <PUBCHEM_COMPOUND_CID>
8497

> <PUBCHEM_CONFORMER_RMSD>
0.6

> <PUBCHEM_CONFORMER_DIVERSEORDER>
1
2

> <PUBCHEM_MMFF94_PARTIAL_CHARGES>
17
1 -0.65
10 -0.15
11 -0.15
12 0.63
13 0.15
14 0.15
15 0.15
16 0.15
17 0.5
2 -0.57
3 -0.52
4 -0.52
5 0.91
6 0.09
7 0.13
8 -0.15
9 -0.15

> <PUBCHEM_EFFECTIVE_ROTOR_COUNT>
2

> <PUBCHEM_PHARMACOPHORE_FEATURES>
7
1 1 acceptor
1 2 acceptor
1 3 acceptor
1 3 anion
1 4 acceptor
3 1 2 12 anion
6 6 7 8 9 10 11 rings

> <PUBCHEM_HEAVY_ATOM_COUNT>
12

> <PUBCHEM_ATOM_DEF_STEREO_COUNT>
0

> <PUBCHEM_ATOM_UDEF_STEREO_COUNT>
0

> <PUBCHEM_BOND_DEF_STEREO_COUNT>
0

> <PUBCHEM_BOND_UDEF_STEREO_COUNT>
0

> <PUBCHEM_ISOTOPIC_ATOM_COUNT>
0

> <PUBCHEM_COMPONENT_COUNT>
1

> <PUBCHEM_CACTVS_TAUTO_COUNT>
1

> <PUBCHEM_CONFORMER_ID>
0000213100000001

> <PUBCHEM_MMFF94_ENERGY>
36.6473

> <PUBCHEM_FEATURE_SELFOVERLAP>
35.662

> <PUBCHEM_SHAPE_FINGERPRINT>
10130415 120 18408885131328665921
10857977 72 18341037575845391680
14128692 85 18410296951192231516
16945 1 18410575076105059173
17990270 104 18192428786794264841
20201158 50 18408321103037909203
20645477 70 18120646101214056759
20711985 365 18120935010171917070
20871998 184 18129659686440978244
20871998 22 18342749498074927262
21501925 9 18268137841726067123
23463225 33 18410858737193515983
23552423 10 18262801907538478053
23559900 14 18268142064391107906
2748010 2 18266173014452584045
3312278 4 18409169921703604866
7364860 26 18126002908288446609

> <PUBCHEM_SHAPE_MULTIPOLES>
218.5
4.64
2
0.58
0.08
0.32
0
-1.97
0
0.05
0
-0.02
0.04
0

> <PUBCHEM_SHAPE_SELFOVERLAP>
463.006

> <PUBCHEM_SHAPE_VOLUME>
122.7

> <PUBCHEM_COORDINATE_TYPE>
2
5
10

$$$$
