9171
  -OEChem-03111922023D

 30 33  0     0  0  0  0  0  0999 V2000
   -0.4349    0.5647    0.0004 C   0  0  0  0  0  0  0  0  0  0  0  0
    0.4350   -0.5647    0.0004 C   0  0  0  0  0  0  0  0  0  0  0  0
   -1.8693    0.3903    0.0003 C   0  0  0  0  0  0  0  0  0  0  0  0
    1.8694   -0.3903    0.0002 C   0  0  0  0  0  0  0  0  0  0  0  0
   -2.4074   -0.9189    0.0002 C   0  0  0  0  0  0  0  0  0  0  0  0
    2.4074    0.9188    0.0001 C   0  0  0  0  0  0  0  0  0  0  0  0
    0.1679    1.8390    0.0005 C   0  0  0  0  0  0  0  0  0  0  0  0
   -0.1679   -1.8391    0.0004 C   0  0  0  0  0  0  0  0  0  0  0  0
    1.5500    2.0142    0.0003 C   0  0  0  0  0  0  0  0  0  0  0  0
   -1.5500   -2.0141    0.0003 C   0  0  0  0  0  0  0  0  0  0  0  0
   -2.8113    1.4532    0.0000 C   0  0  0  0  0  0  0  0  0  0  0  0
    2.8113   -1.4532    0.0000 C   0  0  0  0  0  0  0  0  0  0  0  0
   -3.7974   -1.1313   -0.0003 C   0  0  0  0  0  0  0  0  0  0  0  0
    3.7973    1.1313   -0.0003 C   0  0  0  0  0  0  0  0  0  0  0  0
   -4.1921    1.2326   -0.0006 C   0  0  0  0  0  0  0  0  0  0  0  0
    4.1921   -1.2325   -0.0004 C   0  0  0  0  0  0  0  0  0  0  0  0
   -4.6856   -0.0617   -0.0007 C   0  0  0  0  0  0  0  0  0  0  0  0
    4.6856    0.0616   -0.0007 C   0  0  0  0  0  0  0  0  0  0  0  0
   -0.4284    2.7477    0.0006 H   0  0  0  0  0  0  0  0  0  0  0  0
    0.4284   -2.7478    0.0004 H   0  0  0  0  0  0  0  0  0  0  0  0
    1.9428    3.0294    0.0003 H   0  0  0  0  0  0  0  0  0  0  0  0
   -1.9428   -3.0294    0.0002 H   0  0  0  0  0  0  0  0  0  0  0  0
   -2.4892    2.4912    0.0000 H   0  0  0  0  0  0  0  0  0  0  0  0
    2.4892   -2.4912    0.0001 H   0  0  0  0  0  0  0  0  0  0  0  0
   -4.2027   -2.1418   -0.0004 H   0  0  0  0  0  0  0  0  0  0  0  0
    4.2026    2.1417   -0.0004 H   0  0  0  0  0  0  0  0  0  0  0  0
   -4.8755    2.0768   -0.0009 H   0  0  0  0  0  0  0  0  0  0  0  0
    4.8755   -2.0767   -0.0007 H   0  0  0  0  0  0  0  0  0  0  0  0
   -5.7564   -0.2401   -0.0011 H   0  0  0  0  0  0  0  0  0  0  0  0
    5.7564    0.2401   -0.0011 H   0  0  0  0  0  0  0  0  0  0  0  0
  1  2  2  0  0  0  0
  1  3  1  0  0  0  0
  1  7  1  0  0  0  0
  2  4  1  0  0  0  0
  2  8  1  0  0  0  0
  3  5  1  0  0  0  0
  3 11  2  0  0  0  0
  4  6  1  0  0  0  0
  4 12  2  0  0  0  0
  5 10  1  0  0  0  0
  5 13  2  0  0  0  0
  6  9  1  0  0  0  0
  6 14  2  0  0  0  0
  7  9  2  0  0  0  0
  7 19  1  0  0  0  0
  8 10  2  0  0  0  0
  8 20  1  0  0  0  0
  9 21  1  0  0  0  0
 10 22  1  0  0  0  0
 11 15  1  0  0  0  0
 11 23  1  0  0  0  0
 12 16  1  0  0  0  0
 12 24  1  0  0  0  0
 13 17  1  0  0  0  0
 13 25  1  0  0  0  0
 14 18  1  0  0  0  0
 14 26  1  0  0  0  0
 15 17  2  0  0  0  0
 15 27  1  0  0  0  0
 16 18  2  0  0  0  0
 16 28  1  0  0  0  0
 17 29  1  0  0  0  0
 18 30  1  0  0  0  0
M  END
> <PUBCHEM_COMPOUND_CID>
9171

> <PUBCHEM_CONFORMER_RMSD>
0.4

> <PUBCHEM_CONFORMER_DIVERSEORDER>
1

> <PUBCHEM_MMFF94_PARTIAL_CHARGES>
24
10 -0.15
11 -0.15
12 -0.15
13 -0.15
14 -0.15
15 -0.15
16 -0.15
17 -0.15
18 -0.15
19 0.15
20 0.15
21 0.15
22 0.15
23 0.15
24 0.15
25 0.15
26 0.15
27 0.15
28 0.15
29 0.15
30 0.15
7 -0.15
8 -0.15
9 -0.15

> <PUBCHEM_EFFECTIVE_ROTOR_COUNT>
0

> <PUBCHEM_PHARMACOPHORE_FEATURES>
4
6 1 2 3 5 8 10 rings
6 1 2 4 6 7 9 rings
6 3 5 11 13 15 17 rings
6 4 6 12 14 16 18 rings

> <PUBCHEM_HEAVY_ATOM_COUNT>
18

> <PUBCHEM_ATOM_DEF_STEREO_COUNT>
0

> <PUBCHEM_ATOM_UDEF_STEREO_COUNT>
0

> <PUBCHEM_BOND_DEF_STEREO_COUNT>
0

> <PUBCHEM_BOND_UDEF_STEREO_COUNT>
0

> <PUBCHEM_ISOTOPIC_ATOM_COUNT>
0

> <PUBCHEM_COMPONENT_COUNT>
1

> <PUBCHEM_CACTVS_TAUTO_COUNT>
1

> <PUBCHEM_CONFORMER_ID>
000023D300000001

> <PUBCHEM_MMFF94_ENERGY>
67.3849

> <PUBCHEM_FEATURE_SELFOVERLAP>
20.367

> <PUBCHEM_SHAPE_FINGERPRINT>
10062212 137 18343294877580936655
10411042 1 16249128391628160323
10608611 8 18339640147884725040
10616163 171 18268151031502490166
10967382 1 18410573955134178822
11132069 177 18411414003519036032
11471102 20 18410571794939676372
11578080 2 16842748619719378251
12011746 2 18410573972266549644
12403259 226 18339918333486361561
12403814 3 17676485038503892829
13140716 1 18410575097547981184
13221675 6 18408602577998698187
13675066 3 18410855498782867674
13862211 1 18410568466150553026
14115302 16 18186812399969292950
14178342 30 17980180204941208978
14790565 3 18267030461713716009
14866123 147 17191800281474445754
15099037 51 18410573972498781415
15196674 1 18410573989446418437
15375358 24 18343582945290151182
15442244 35 18411136926667983672
15536298 74 18342175578996389496
16945 1 18122625221415403526
17492 89 18339923834738698238
17804303 29 18411421730207568381
1813 80 17168143438393935708
18186145 218 17968088720434638719
18522853 276 18341894095134449169
19591789 44 18337389323028635398
200 152 17989201560397302421
20510252 161 18272371932082027209
20645477 70 18341895164861166750
21029758 11 18343298171731220889
21267235 1 18410583881072956522
21279426 13 18194402190880145893
21421861 104 17823971239421409890
21501502 16 18266459991081778494
221490 88 18263651834105373563
23402539 116 18272080591449055175
23463225 33 18409449184940924148
23559900 14 18271804657697996792
2748010 2 18410855468718096535
3004659 81 18260834748915606358
335352 9 18338516326689014207
34934 24 18411694422493006434
350125 39 18410578383958072289
3545911 37 18411702096992857456
4214541 1 18410856551282151941
474 4 17241616202860608516
495365 180 17417798578740412602
5104073 3 18410855477308031952
69090 78 18413668023931247943
7364860 26 18269835492264834672
77779 3 18410294717787930628
7832392 63 18340482374012959110
8809292 202 18261677072678192387
9709674 26 18411987995797017302
9981440 41 17327174858557564184

> <PUBCHEM_SHAPE_MULTIPOLES>
370.43
8.81
2.14
0.62
0
0
0
0
0
0
0
0
0
0

> <PUBCHEM_SHAPE_SELFOVERLAP>
851.39

> <PUBCHEM_SHAPE_VOLUME>
174.4

> <PUBCHEM_COORDINATE_TYPE>
2
5
10

$$$$
