98487
  -OEChem-10241807063D

 20 20  0     0  0  0  0  0  0999 V2000
    2.4814   -1.1515   -0.0019 O   0  0  0  0  0  0  0  0  0  0  0  0
   -2.5428   -1.6892    0.0092 O   0  0  0  0  0  0  0  0  0  0  0  0
   -3.3754    0.4475   -0.0031 N   0  0  0  0  0  0  0  0  0  0  0  0
   -0.9696    0.0634   -0.0024 C   0  0  0  0  0  0  0  0  0  0  0  0
    1.4188   -0.3011   -0.0009 C   0  0  0  0  0  0  0  0  0  0  0  0
    0.1194   -0.8083   -0.0032 C   0  0  0  0  0  0  0  0  0  0  0  0
   -0.7591    1.4423    0.0008 C   0  0  0  0  0  0  0  0  0  0  0  0
    1.6292    1.0777    0.0023 C   0  0  0  0  0  0  0  0  0  0  0  0
    0.5403    1.9495    0.0033 C   0  0  0  0  0  0  0  0  0  0  0  0
   -2.3244   -0.4651   -0.0045 C   0  0  0  0  0  0  0  0  0  0  0  0
    3.7822   -0.5652    0.0004 C   0  0  0  0  0  0  0  0  0  0  0  0
   -0.0252   -1.8860   -0.0059 H   0  0  0  0  0  0  0  0  0  0  0  0
   -1.5553    2.1768    0.0022 H   0  0  0  0  0  0  0  0  0  0  0  0
    2.6108    1.5391    0.0042 H   0  0  0  0  0  0  0  0  0  0  0  0
    0.7042    3.0233    0.0060 H   0  0  0  0  0  0  0  0  0  0  0  0
    3.9599    0.0165    0.9114 H   0  0  0  0  0  0  0  0  0  0  0  0
    3.9613    0.0205   -0.9077 H   0  0  0  0  0  0  0  0  0  0  0  0
    4.5067   -1.3862   -0.0008 H   0  0  0  0  0  0  0  0  0  0  0  0
   -3.2882    1.4553   -0.0094 H   0  0  0  0  0  0  0  0  0  0  0  0
   -4.3308    0.1038    0.0025 H   0  0  0  0  0  0  0  0  0  0  0  0
  1  5  1  0  0  0  0
  1 11  1  0  0  0  0
  2 10  2  0  0  0  0
  3 10  1  0  0  0  0
  3 19  1  0  0  0  0
  3 20  1  0  0  0  0
  4  6  2  0  0  0  0
  4  7  1  0  0  0  0
  4 10  1  0  0  0  0
  5  6  1  0  0  0  0
  5  8  2  0  0  0  0
  6 12  1  0  0  0  0
  7  9  2  0  0  0  0
  7 13  1  0  0  0  0
  8  9  1  0  0  0  0
  8 14  1  0  0  0  0
  9 15  1  0  0  0  0
 11 16  1  0  0  0  0
 11 17  1  0  0  0  0
 11 18  1  0  0  0  0
M  END
> <PUBCHEM_COMPOUND_CID>
98487

> <PUBCHEM_CONFORMER_RMSD>
0.4

> <PUBCHEM_CONFORMER_DIVERSEORDER>
1
4
3
2

> <PUBCHEM_MMFF94_PARTIAL_CHARGES>
17
1 -0.36
10 0.54
11 0.28
12 0.15
13 0.15
14 0.15
15 0.15
19 0.37
2 -0.57
20 0.37
3 -0.8
4 0.09
5 0.08
6 -0.15
7 -0.15
8 -0.15
9 -0.15

> <PUBCHEM_EFFECTIVE_ROTOR_COUNT>
2

> <PUBCHEM_PHARMACOPHORE_FEATURES>
4
1 1 acceptor
1 2 acceptor
1 3 donor
6 4 5 6 7 8 9 rings

> <PUBCHEM_HEAVY_ATOM_COUNT>
11

> <PUBCHEM_ATOM_DEF_STEREO_COUNT>
0

> <PUBCHEM_ATOM_UDEF_STEREO_COUNT>
0

> <PUBCHEM_BOND_DEF_STEREO_COUNT>
0

> <PUBCHEM_BOND_UDEF_STEREO_COUNT>
0

> <PUBCHEM_ISOTOPIC_ATOM_COUNT>
0

> <PUBCHEM_COMPONENT_COUNT>
1

> <PUBCHEM_CACTVS_TAUTO_COUNT>
2

> <PUBCHEM_CONFORMER_ID>
000180B700000001

> <PUBCHEM_MMFF94_ENERGY>
40.1958

> <PUBCHEM_FEATURE_SELFOVERLAP>
20.297

> <PUBCHEM_SHAPE_FINGERPRINT>
10130415 120 18408603643250769065
10219947 1 18131633374395672390
10857977 72 18341037558765625858
12032990 46 18411706486745079942
12932764 1 17240750801003863987
14128692 85 18410015459199065068
14325111 11 18338797926277941189
16945 1 18338516335294935013
17990270 104 18264486372105114633
193761 8 17690279734866694246
20201158 50 18410291389246616863
20871998 184 18130222636600049934
20871998 22 18271537407141150646
21040471 1 17762337315713973061
21501925 9 18267855245578340858
23402655 69 18195509412924401389
23552423 10 18261111936575633829
2748010 2 18338230582667928237
7364860 26 18198623435326747488

> <PUBCHEM_SHAPE_MULTIPOLES>
209.66
4.89
1.71
0.59
0.77
0.46
0
-1.83
0
-0.08
0
0.03
0.02
0

> <PUBCHEM_SHAPE_SELFOVERLAP>
436.951

> <PUBCHEM_SHAPE_VOLUME>
119.6

> <PUBCHEM_COORDINATE_TYPE>
2
5
10

$$$$
