9968
  -OEChem-10241806333D

 15 15  0     0  0  0  0  0  0999 V2000
   -2.6986    1.4983    0.0009 F   0  0  0  0  0  0  0  0  0  0  0  0
    2.8258   -0.7518    0.0012 O   0  0  0  0  0  0  0  0  0  0  0  0
    2.4179    1.4843   -0.0003 O   0  0  0  0  0  0  0  0  0  0  0  0
    0.5894   -0.0586   -0.0004 C   0  0  0  0  0  0  0  0  0  0  0  0
   -0.4015    0.9231   -0.0004 C   0  0  0  0  0  0  0  0  0  0  0  0
    0.2347   -1.4076   -0.0002 C   0  0  0  0  0  0  0  0  0  0  0  0
   -1.7471    0.5558   -0.0003 C   0  0  0  0  0  0  0  0  0  0  0  0
   -1.1110   -1.7749   -0.0001 C   0  0  0  0  0  0  0  0  0  0  0  0
   -2.1019   -0.7932   -0.0001 C   0  0  0  0  0  0  0  0  0  0  0  0
    1.9923    0.3245   -0.0003 C   0  0  0  0  0  0  0  0  0  0  0  0
   -0.1464    1.9795   -0.0002 H   0  0  0  0  0  0  0  0  0  0  0  0
    0.9733   -2.2044   -0.0003 H   0  0  0  0  0  0  0  0  0  0  0  0
   -1.3880   -2.8252    0.0001 H   0  0  0  0  0  0  0  0  0  0  0  0
   -3.1497   -1.0788    0.0003 H   0  0  0  0  0  0  0  0  0  0  0  0
    3.7692   -0.4827    0.0018 H   0  0  0  0  0  0  0  0  0  0  0  0
  1  7  1  0  0  0  0
  2 10  1  0  0  0  0
  2 15  1  0  0  0  0
  3 10  2  0  0  0  0
  4  5  2  0  0  0  0
  4  6  1  0  0  0  0
  4 10  1  0  0  0  0
  5  7  1  0  0  0  0
  5 11  1  0  0  0  0
  6  8  2  0  0  0  0
  6 12  1  0  0  0  0
  7  9  2  0  0  0  0
  8  9  1  0  0  0  0
  8 13  1  0  0  0  0
  9 14  1  0  0  0  0
M  END
> <PUBCHEM_COMPOUND_CID>
9968

> <PUBCHEM_CONFORMER_RMSD>
0.4

> <PUBCHEM_CONFORMER_DIVERSEORDER>
1
2

> <PUBCHEM_MMFF94_PARTIAL_CHARGES>
15
1 -0.19
10 0.63
11 0.15
12 0.15
13 0.15
14 0.15
15 0.5
2 -0.65
3 -0.57
4 0.09
5 -0.15
6 -0.15
7 0.19
8 -0.15
9 -0.15

> <PUBCHEM_EFFECTIVE_ROTOR_COUNT>
1

> <PUBCHEM_PHARMACOPHORE_FEATURES>
4
1 2 acceptor
1 3 acceptor
3 2 3 10 anion
6 4 5 6 7 8 9 rings

> <PUBCHEM_HEAVY_ATOM_COUNT>
10

> <PUBCHEM_ATOM_DEF_STEREO_COUNT>
0

> <PUBCHEM_ATOM_UDEF_STEREO_COUNT>
0

> <PUBCHEM_BOND_DEF_STEREO_COUNT>
0

> <PUBCHEM_BOND_UDEF_STEREO_COUNT>
0

> <PUBCHEM_ISOTOPIC_ATOM_COUNT>
0

> <PUBCHEM_COMPONENT_COUNT>
1

> <PUBCHEM_CACTVS_TAUTO_COUNT>
1

> <PUBCHEM_CONFORMER_ID>
000026F000000001

> <PUBCHEM_MMFF94_ENERGY>
24.4322

> <PUBCHEM_FEATURE_SELFOVERLAP>
20.355

> <PUBCHEM_SHAPE_FINGERPRINT>
12897270 3 18195246852313073124
12932764 1 17631453530544728342
14325111 11 18410855464449665248
16945 1 18338797788802116423
193761 8 15960616161656340615
19973954 147 18338518654767191932
20653085 51 18410304596249686840
20871998 184 18056204797918971703
21040471 1 18410573968056029959
23235685 24 18339637828707737257
23552423 10 18260829349424140934
241688 4 17763459921628722427
2748010 2 18410857680626266983
369184 2 18341894142384318618
5084963 1 18273214205148926682

> <PUBCHEM_SHAPE_MULTIPOLES>
186.78
3.65
1.73
0.59
1.24
0.13
0
-0.82
0
-0.48
0
-0.02
0.02
0

> <PUBCHEM_SHAPE_SELFOVERLAP>
394.704

> <PUBCHEM_SHAPE_VOLUME>
105.1

> <PUBCHEM_COORDINATE_TYPE>
2
5
10

$$$$
