16173
  -OEChem-02232104243D

 23 25  0     0  0  0  0  0  0999 V2000
   -0.6227    1.8791   -0.0005 O   0  0  0  0  0  0  0  0  0  0  0  0
    1.4342    2.8629    0.0000 O   0  0  0  0  0  0  0  0  0  0  0  0
    0.5957   -0.6730   -0.0002 C   0  0  0  0  0  0  0  0  0  0  0  0
   -0.8674   -0.5515   -0.0003 C   0  0  0  0  0  0  0  0  0  0  0  0
    1.3845    0.4908    0.0001 C   0  0  0  0  0  0  0  0  0  0  0  0
   -1.4349    0.7248   -0.0002 C   0  0  0  0  0  0  0  0  0  0  0  0
    1.2684   -1.9095   -0.0004 C   0  0  0  0  0  0  0  0  0  0  0  0
   -1.7607   -1.6356    0.0000 C   0  0  0  0  0  0  0  0  0  0  0  0
    0.7650    1.8378    0.0002 C   0  0  0  0  0  0  0  0  0  0  0  0
    2.7868    0.4175    0.0004 C   0  0  0  0  0  0  0  0  0  0  0  0
   -2.8151    0.9434    0.0001 C   0  0  0  0  0  0  0  0  0  0  0  0
    2.6647   -1.9826   -0.0002 C   0  0  0  0  0  0  0  0  0  0  0  0
    3.4234   -0.8196    0.0004 C   0  0  0  0  0  0  0  0  0  0  0  0
   -3.1477   -1.4364    0.0003 C   0  0  0  0  0  0  0  0  0  0  0  0
   -3.6742   -0.1480    0.0004 C   0  0  0  0  0  0  0  0  0  0  0  0
    0.7253   -2.8506   -0.0007 H   0  0  0  0  0  0  0  0  0  0  0  0
   -1.4078   -2.6630    0.0002 H   0  0  0  0  0  0  0  0  0  0  0  0
    3.3991    1.3157    0.0007 H   0  0  0  0  0  0  0  0  0  0  0  0
   -3.2172    1.9521    0.0002 H   0  0  0  0  0  0  0  0  0  0  0  0
    3.1556   -2.9517   -0.0003 H   0  0  0  0  0  0  0  0  0  0  0  0
   -3.8150   -2.2938    0.0005 H   0  0  0  0  0  0  0  0  0  0  0  0
    4.5077   -0.8751    0.0006 H   0  0  0  0  0  0  0  0  0  0  0  0
   -4.7494    0.0024    0.0006 H   0  0  0  0  0  0  0  0  0  0  0  0
  1  6  1  0  0  0  0
  1  9  1  0  0  0  0
  2  9  2  0  0  0  0
  3  4  1  0  0  0  0
  3  5  1  0  0  0  0
  3  7  2  0  0  0  0
  4  6  1  0  0  0  0
  4  8  2  0  0  0  0
  5  9  1  0  0  0  0
  5 10  2  0  0  0  0
  6 11  2  0  0  0  0
  7 12  1  0  0  0  0
  7 16  1  0  0  0  0
  8 14  1  0  0  0  0
  8 17  1  0  0  0  0
 10 13  1  0  0  0  0
 10 18  1  0  0  0  0
 11 15  1  0  0  0  0
 11 19  1  0  0  0  0
 12 13  2  0  0  0  0
 12 20  1  0  0  0  0
 13 22  1  0  0  0  0
 14 15  2  0  0  0  0
 14 21  1  0  0  0  0
 15 23  1  0  0  0  0
M  END
> <PUBCHEM_COMPOUND_CID>
16173

> <PUBCHEM_CONFORMER_RMSD>
0.4

> <PUBCHEM_CONFORMER_DIVERSEORDER>
1

> <PUBCHEM_MMFF94_PARTIAL_CHARGES>
21
1 -0.23
10 -0.15
11 -0.15
12 -0.15
13 -0.15
14 -0.15
15 -0.15
16 0.15
17 0.15
18 0.15
19 0.15
2 -0.57
20 0.15
21 0.15
22 0.15
23 0.15
5 0.09
6 0.08
7 -0.15
8 -0.15
9 0.63

> <PUBCHEM_EFFECTIVE_ROTOR_COUNT>
0

> <PUBCHEM_PHARMACOPHORE_FEATURES>
4
1 2 acceptor
6 1 3 4 5 6 9 rings
6 3 5 7 10 12 13 rings
6 4 6 8 11 14 15 rings

> <PUBCHEM_HEAVY_ATOM_COUNT>
15

> <PUBCHEM_ATOM_DEF_STEREO_COUNT>
0

> <PUBCHEM_ATOM_UDEF_STEREO_COUNT>
0

> <PUBCHEM_BOND_DEF_STEREO_COUNT>
0

> <PUBCHEM_BOND_UDEF_STEREO_COUNT>
0

> <PUBCHEM_ISOTOPIC_ATOM_COUNT>
0

> <PUBCHEM_COMPONENT_COUNT>
1

> <PUBCHEM_CACTVS_TAUTO_COUNT>
1

> <PUBCHEM_CONFORMER_ID>
00003F2D00000001

> <PUBCHEM_MMFF94_ENERGY>
54.6081

> <PUBCHEM_FEATURE_SELFOVERLAP>
20.345

> <PUBCHEM_SHAPE_FINGERPRINT>
10608611 8 18408880754725414093
10967382 1 18266740366562743910
11132069 177 18410849932684736514
11471102 20 18410006650347722119
12032990 46 18411423869106705926
12251169 10 18341621408214610203
12382932 28 18340484456929757506
13140716 1 18266740383753117577
13221675 6 18410293609813222167
14144814 61 18411700967564385667
14648413 74 18335984288949588537
15196674 1 18410856542459985351
15375462 189 18187650145919616979
15442244 35 18340208492459293625
15536298 74 18271807973006307352
16945 1 18410855477461070245
17990270 104 18409727395579057042
193761 8 17906453581963685826
19591789 44 16606616570456018611
200 152 18059563711990272799
20201158 50 18409165510935910499
20559304 39 18410858801691839390
20645477 70 18264479762709959583
21267235 1 18410865334290175975
21501502 16 18339083808233852525
221490 88 18263933304845613323
22721475 48 18409733945467389399
2334 1 17906453586068456737
23402539 116 18198610051950008599
23463225 33 18410012109050812062
23552423 10 18337391672586424663
23559900 14 18124308316869343050
2748010 2 18195522597576583654
3071541 12 18267026235439107188
3071541 158 18333449841564698596
335352 9 18266458694212716893
34934 24 18337943494095167050
5104073 3 18411136922320451691
528886 8 18411695474274853346
53812653 166 18342452681733400776
63268167 104 18410016532914502449
7364860 26 18341331214064138776
7832392 63 18340768143972770593
81228 2 18051142384486118250
8809292 202 18260553337471991643
9709674 26 18410578426369967327

> <PUBCHEM_SHAPE_MULTIPOLES>
296.95
5.46
2.49
0.6
1.36
0.91
0
-1.7
0
-0.84
0
0
-0.03
0

> <PUBCHEM_SHAPE_SELFOVERLAP>
667.979

> <PUBCHEM_SHAPE_VOLUME>
155.4

> <PUBCHEM_COORDINATE_TYPE>
2
5
10

$$$$
